/*--------------------------------*- C++ -*----------------------------------*\
  =========                 |
  \\      /  F ield         | OpenFOAM: The Open Source CFD Toolbox
   \\    /   O peration     | Website:  https://openfoam.org
    \\  /    A nd           | Version:  7  
     \\/     M anipulation  |
\*---------------------------------------------------------------------------*/
FoamFile
{
    version     2.0;
    format      ascii;
    class       dictionary;
    location    "system";
    object      fvSchemes;
}
// * * * * * * * * * * * * * * * * * * * * * * * * * * * * * * * * * * * * * //

ddtSchemes
{
    default         Euler;
}

gradSchemes
{
    default         Gauss linear;
}

divSchemes
{
    default         none;

   div(alphaRhoPhi,U)      Gauss upwind;
    div((alphaf*phid),p)     Gauss upwind;
    div(alphaRhoPhi,K)      Gauss linear;
    div(alphaRhoPhi,he)     Gauss upwind;
    div(alphaRhoPhi,k)      Gauss upwind;
    div(alphaRhoPhi,epsilon) Gauss upwind;
    div(U)          Gauss linear;
    div((((alpha*rho)*nuEff)*dev2(T(grad(U))))) Gauss linear;
    div(alphaRhoPhi,Yi_h)   Gauss upwind;
    div(Ji,Ii_h)    Gauss upwind;
}

laplacianSchemes
{
    default         Gauss linear orthogonal;
}

interpolationSchemes
{
    default         linear;
}

snGradSchemes
{
    default         orthogonal;
}


// ************************************************************************* //
